Circuit: * C:\Users\Merrick\Documents\LTspiceXVII\balun.asc

.OP point found by inspection.

Date: Mon Oct 12 14:59:28 2020
Total elapsed time: 0.098 seconds.

tnom = 27
temp = 27
method = modified trap
totiter = 65952
traniter = 65952
tranpoints = 32977
accept = 22641
rejected = 10336
matrix size = 5
fillins = 0
solver = Normal
Matrix Compiler1:      10 opcodes  0.0/[0.0]/0.0
Matrix Compiler2:      29 opcodes  0.1/[0.0]/0.1

